@<TRIPOS>MOLECULE
rfp.pdb
  117   121     1     0     0
SMALL
bcc


@<TRIPOS>ATOM
      1 C1          -2.3940   -18.1170    -2.6460 ca      1201 RFP       0.124100
      2 C2          -3.6400   -17.9780    -2.0160 ca      1201 RFP       0.051600
      3 C3          -4.5750   -17.0410    -2.4240 ca      1201 RFP      -0.120900
      4 C4          -4.2630   -16.2010    -3.5200 ca      1201 RFP       0.102100
      5 C5          -2.6270   -15.4760    -5.3290 ca      1201 RFP      -0.301600
      6 C6          -1.4120   -15.6300    -5.9980 ca      1201 RFP       0.224100
      7 C7          -0.4560   -16.6170    -5.5420 ca      1201 RFP      -0.210300
      8 C8          -0.7760   -17.4220    -4.4550 ca      1201 RFP       0.225100
      9 C9          -2.0680   -17.2770    -3.7770 ca      1201 RFP      -0.094000
     10 C10         -2.9820   -16.3430    -4.2070 ca      1201 RFP       0.048000
     11 C11         -3.3840   -14.5010    -6.1340 c       1201 RFP       0.573700
     12 C12         -2.5580   -13.8710    -7.0690 c5      1201 RFP       0.244600
     13 C13         -3.1610   -13.9490    -8.4170 c3      1201 RFP      -0.084100
     14 C14          0.8730   -16.7600    -6.2440 c3      1201 RFP      -0.048800
     15 C15         -3.8640   -20.2490    -0.7420 c       1201 RFP       0.682300
     16 C16         -4.2750   -20.9110     0.5770 ce      1201 RFP      -0.148400
     17 C17         -4.8220   -19.9960     1.6960 cf      1201 RFP      -0.091000
     18 C18         -4.2820   -18.5870     1.9750 cf      1201 RFP      -0.177000
     19 C19         -3.2560   -18.3420     2.8950 c2      1201 RFP      -0.127200
     20 C20         -3.1330   -16.9650     3.5400 c3      1201 RFP      -0.062500
     21 C21         -2.4720   -15.9570     2.5810 c3      1201 RFP       0.141100
     22 C22         -2.4620   -14.4820     3.0720 c3      1201 RFP      -0.128700
     23 C23         -1.6830   -13.5670     2.0880 c3      1201 RFP       0.145100
     24 C24         -2.5080   -13.0350     0.8790 c3      1201 RFP      -0.115700
     25 C25         -1.7820   -12.1760    -0.1950 c3      1201 RFP       0.145100
     26 C26         -2.2750   -12.4840    -1.6340 c3      1201 RFP      -0.083700
     27 C27         -1.5370   -11.8430    -2.8180 c3      1201 RFP       0.184300
     28 C28         -2.0400   -12.4390    -4.1610 c2      1201 RFP      -0.211200
     29 C29         -1.5580   -12.1770    -5.4650 c2      1201 RFP       0.025100
     30 C30         -5.3430   -21.9550     0.3460 c3      1201 RFP      -0.057900
     31 C31         -4.5250   -16.5660     3.9330 c3      1201 RFP      -0.096100
     32 C32         -1.9270   -14.3140     4.4840 c3      1201 RFP      -0.098100
     33 C33         -3.6510   -12.1990     1.3800 c3      1201 RFP      -0.083100
     34 C34         -2.2120   -13.9670    -1.8430 c3      1201 RFP      -0.088100
     35 C35         -0.8290   -10.0560     0.4230 c       1201 RFP       0.630100
     36 C36         -0.9620    -8.5620     0.3390 c3      1201 RFP      -0.152100
     37 C37          0.6980   -10.9130    -2.6480 c3      1201 RFP       0.112700
     38 C38         -9.8270   -17.6840     2.6990 c3      1201 RFP       0.148100
     39 C39         -9.5540   -17.4830     0.3190 c6      1201 RFP       0.131800
     40 C40         -8.2800   -18.1650    -0.0790 c6      1201 RFP       0.125800
     41 C41         -7.0710   -16.6450     1.3120 c6      1201 RFP       0.125800
     42 C42         -8.3380   -15.9230     1.6510 c6      1201 RFP       0.131800
     43 C43         -6.0640   -17.3580    -2.0680 ce      1201 RFP       0.399800
     44 N1          -3.9930   -18.7980    -0.8590 ns      1201 RFP      -0.452100
     45 N2          -6.7310   -16.4940    -1.0480 n2      1201 RFP      -0.471400
     46 N3          -7.1390   -17.3000     0.0340 nh      1201 RFP      -0.405700
     47 N4          -9.4570   -16.8200     1.5930 n3      1201 RFP      -0.719600
     48 O1          -1.5050   -19.0700    -2.1830 oh      1201 RFP      -0.505100
     49 O2           0.1250   -18.3580    -4.0190 oh      1201 RFP      -0.474100
     50 O3          -1.3340   -14.7130    -7.0630 os      1201 RFP      -0.326900
     51 O4          -4.5960   -13.9410    -5.7170 o       1201 RFP      -0.521100
     52 O5          -2.3250   -12.5530    -6.6240 os      1201 RFP      -0.333900
     53 O6          -0.1740   -12.0080    -2.6420 os      1201 RFP      -0.423600
     54 O7          -1.9120   -10.8500     0.1120 os      1201 RFP      -0.448900
     55 O8           0.2480   -10.5420     0.7490 o       1201 RFP      -0.539000
     56 O9          -0.5630   -14.2300     1.6500 oh      1201 RFP      -0.600800
     57 O10         -1.2020   -16.4040     2.2900 oh      1201 RFP      -0.597800
     58 O11         -3.4400   -20.9290    -1.6580 o       1201 RFP      -0.615100
     59 O12         -5.1960   -15.2760    -3.9250 oh      1201 RFP      -0.519100
     60 H1          -2.5200   -13.4640    -9.1230 hc      1201 RFP       0.069033
     61 H2          -4.1150   -13.4640    -8.4100 hc      1201 RFP       0.069033
     62 H3          -3.2840   -14.9750    -8.6940 hc      1201 RFP       0.069033
     63 H4           0.9290   -16.0570    -7.0490 hc      1201 RFP       0.054033
     64 H5           0.9670   -17.7530    -6.6310 hc      1201 RFP       0.054033
     65 H6           1.6650   -16.5710    -5.5500 hc      1201 RFP       0.054033
     66 H7          -5.5900   -20.3510     2.2860 ha      1201 RFP       0.134000
     67 H8          -4.6910   -17.7890     1.4640 ha      1201 RFP       0.137000
     68 H9          -2.5860   -19.0890     3.1360 ha      1201 RFP       0.143000
     69 H10         -2.4970   -16.9840     4.4000 hc      1201 RFP       0.057700
     70 H11         -3.0770   -15.9210     1.6990 h1      1201 RFP       0.084700
     71 H12         -3.4880   -14.1800     3.0960 hc      1201 RFP       0.063700
     72 H13         -1.4240   -12.6900     2.6430 h1      1201 RFP       0.085700
     73 H14         -2.7870   -13.9420     0.3840 hc      1201 RFP       0.068700
     74 H15         -0.7440   -12.4340    -0.1810 h1      1201 RFP       0.102700
     75 H16         -3.2530   -12.0500    -1.6530 hc      1201 RFP       0.059700
     76 H17         -1.7420   -10.7940    -2.8560 h1      1201 RFP       0.065700
     77 H18         -2.8220   -13.1090    -4.0940 ha      1201 RFP       0.145000
     78 H19         -0.6450   -11.7110    -5.5870 h4      1201 RFP       0.169000
     79 H20         -5.0250   -22.6270    -0.4240 hc      1201 RFP       0.054033
     80 H21         -6.2520   -21.4760     0.0480 hc      1201 RFP       0.054033
     81 H22         -5.5080   -22.5020     1.2500 hc      1201 RFP       0.054033
     82 H23         -5.1500   -16.5500     3.0650 hc      1201 RFP       0.040700
     83 H24         -4.5050   -15.5920     4.3760 hc      1201 RFP       0.040700
     84 H25         -4.9120   -17.2710     4.6390 hc      1201 RFP       0.040700
     85 H26         -0.8980   -14.6050     4.5120 hc      1201 RFP       0.042367
     86 H27         -2.4900   -14.9290     5.1540 hc      1201 RFP       0.042367
     87 H28         -2.0170   -13.2900     4.7800 hc      1201 RFP       0.042367
     88 H29         -3.2680   -11.3210     1.8560 hc      1201 RFP       0.038700
     89 H30         -4.2250   -12.7650     2.0830 hc      1201 RFP       0.038700
     90 H31         -4.2740   -11.9160     0.5570 hc      1201 RFP       0.038700
     91 H32         -1.1930   -14.2900    -1.8040 hc      1201 RFP       0.045367
     92 H33         -2.6270   -14.2100    -2.7990 hc      1201 RFP       0.045367
     93 H34         -2.7720   -14.4600    -1.0750 hc      1201 RFP       0.045367
     94 H35         -1.9590    -8.3090     0.0430 hc      1201 RFP       0.076033
     95 H36         -0.2690    -8.1820    -0.3820 hc      1201 RFP       0.076033
     96 H37         -0.7530    -8.1310     1.2960 hc      1201 RFP       0.076033
     97 H38          1.7010   -11.2550    -2.4970 h1      1201 RFP       0.037367
     98 H39          0.4290   -10.2380    -1.8620 h1      1201 RFP       0.037367
     99 H40          0.6310   -10.4090    -3.5900 h1      1201 RFP       0.037367
    100 H41        -10.6870   -18.2600     2.4290 h1      1201 RFP       0.033033
    101 H42        -10.0530   -17.0870     3.5580 h1      1201 RFP       0.033033
    102 H43         -9.0140   -18.3420     2.9250 h1      1201 RFP       0.033033
    103 H44        -10.3320   -18.2160     0.3730 h1      1201 RFP       0.062200
    104 H45         -9.7640   -16.7360    -0.4180 h1      1201 RFP       0.062200
    105 H46         -8.1320   -19.0140     0.5550 h1      1201 RFP       0.065450
    106 H47         -8.3710   -18.4540    -1.1050 h1      1201 RFP       0.065450
    107 H48         -6.2670   -15.9390     1.2940 h1      1201 RFP       0.065450
    108 H49         -6.9150   -17.3980     2.0570 h1      1201 RFP       0.065450
    109 H50         -8.4880   -15.1270     0.9520 h1      1201 RFP       0.062200
    110 H51         -8.2590   -15.5310     2.6430 h1      1201 RFP       0.062200
    111 H52         -6.5680   -18.1360    -2.5210 h4      1201 RFP       0.012800
    112 H53         -4.3560   -18.3230    -0.0760 hn      1201 RFP       0.346500
    113 H54         -0.6700   -19.1720    -2.5960 ho      1201 RFP       0.452000
    114 H55          0.9510   -18.4510    -4.4520 ho      1201 RFP       0.434000
    115 H56         -0.8280   -15.0190     1.1520 ho      1201 RFP       0.416000
    116 H57         -0.6740   -16.4280     3.1030 ho      1201 RFP       0.404000
    117 H58         -5.0110   -14.7100    -4.6480 ho      1201 RFP       0.444000
@<TRIPOS>BOND
     1    13    12 1   
     2    12    50 1   
     3    12    52 1   
     4    12    11 1   
     5    50     6 1   
     6    52    29 1   
     7    14     7 1   
     8    11    51 2   
     9    11     5 1   
    10     6     7 ar  
    11     6     5 ar  
    12     7     8 ar  
    13    29    28 2   
    14     5    10 ar  
    15     8    49 1   
    16     8     9 ar  
    17    10     9 ar  
    18    10     4 ar  
    19    28    27 1   
    20    59     4 1   
    21     9     1 ar  
    22     4     3 ar  
    23    27    53 1   
    24    27    26 1   
    25    37    53 1   
    26     1    48 1   
    27     1     2 ar  
    28     3    43 1   
    29     3     2 ar  
    30    43    45 2   
    31     2    44 1   
    32    34    26 1   
    33    58    15 2   
    34    26    25 1   
    35    45    46 1   
    36    44    15 1   
    37    15    16 1   
    38    25    54 1   
    39    25    24 1   
    40    40    46 1   
    41    40    39 1   
    42    46    41 1   
    43    54    35 1   
    44    39    47 1   
    45    36    35 1   
    46    30    16 1   
    47    35    55 2   
    48    16    17 2   
    49    24    33 1   
    50    24    23 1   
    51    41    42 1   
    52    47    42 1   
    53    47    38 1   
    54    56    23 1   
    55    17    18 1   
    56    18    19 2   
    57    23    22 1   
    58    57    21 1   
    59    21    22 1   
    60    21    20 1   
    61    19    20 1   
    62    22    32 1   
    63    20    31 1   
    64    13    60 1   
    65    13    61 1   
    66    13    62 1   
    67    14    63 1   
    68    14    64 1   
    69    14    65 1   
    70    17    66 1   
    71    18    67 1   
    72    19    68 1   
    73    20    69 1   
    74    21    70 1   
    75    22    71 1   
    76    23    72 1   
    77    24    73 1   
    78    25    74 1   
    79    26    75 1   
    80    27    76 1   
    81    28    77 1   
    82    29    78 1   
    83    30    79 1   
    84    30    80 1   
    85    30    81 1   
    86    31    82 1   
    87    31    83 1   
    88    31    84 1   
    89    32    85 1   
    90    32    86 1   
    91    32    87 1   
    92    33    88 1   
    93    33    89 1   
    94    33    90 1   
    95    34    91 1   
    96    34    92 1   
    97    34    93 1   
    98    36    94 1   
    99    36    95 1   
   100    36    96 1   
   101    37    97 1   
   102    37    98 1   
   103    37    99 1   
   104    38   100 1   
   105    38   101 1   
   106    38   102 1   
   107    39   103 1   
   108    39   104 1   
   109    40   105 1   
   110    40   106 1   
   111    41   107 1   
   112    41   108 1   
   113    42   109 1   
   114    42   110 1   
   115    43   111 1   
   116    44   112 1   
   117    48   113 1   
   118    49   114 1   
   119    56   115 1   
   120    57   116 1   
   121    59   117 1   
@<TRIPOS>SUBSTRUCTURE
     1 RFP         1 TEMP              0 ****  ****    0 ROOT
